Circuit: * C:\Users\evanc\Desktop\curvetrace\curvetrace.asc

WARNING: Node NC_03 is floating.

WARNING: Less than two connections to node NC_01.  This node is used by Q4.
WARNING: Less than two connections to node NC_02.  This node is used by Q4.
WARNING: Less than two connections to node NC_03.  This node is used by Q4.
Early termination of direct N-R iteration.
Direct Newton iteration failed to find .op point.  (Use ".option noopiter" to skip.)
Starting Gmin stepping
Gmin = 10
vernier = 0.5
vernier = 0.25
vernier = 0.125
Gmin = 5.5165
vernier = 0.0625
vernier = 0.03125
vernier = 0.015625
vernier = 0.0078125
Gmin = 5.49501
vernier = 0.00390625
vernier = 0.00195313
vernier = 0.000976563
vernier = 0.000488281
Gmin = 5.50104
Gmin = 0
Gmin stepping failed

Starting source stepping with srcstepmethod=0
Source Step = 3.0303%
Source Step = 6.07244%
Source Step = 6.10204%
Source Step = 6.13163%
Source Step = 6.16122%
Source Step = 6.19081%
vernier = 0.00146484
Source Step = 6.22337%
Source Step = 6.26776%
Source Step = 6.31214%
Source Step = 6.35653%
Source Step = 6.40092%
vernier = 0.00219727
Source Step = 6.44753%
Source Step = 6.51412%
Source Step = 6.5807%
Source Step = 6.64728%
Source Step = 6.71387%
Source Step = 6.78045%
vernier = 0.0032959
Source Step = 6.88033%
Source Step = 6.9802%
Source Step = 7.08008%
Source Step = 7.17995%
Source Step = 7.27983%
vernier = 0.00494385
Source Step = 7.42465%
Source Step = 7.57446%
Source Step = 7.72428%
Source Step = 7.87409%
Source Step = 8.0239%
vernier = 0.00741577
Source Step = 8.23364%
Source Step = 8.45836%
Source Step = 8.68308%
Source Step = 8.9078%
Source Step = 9.13252%
vernier = 0.0111237
Source Step = 9.4359%
Source Step = 9.77298%
Source Step = 10.1101%
Source Step = 10.4471%
Source Step = 10.7842%
vernier = 0.0166855
Source Step = 11.2224%
Source Step = 11.728%
Source Step = 12.2337%
Source Step = 12.7393%
Source Step = 13.2449%
vernier = 0.0250282
Source Step = 13.8769%
Source Step = 14.6354%
Source Step = 15.3938%
Source Step = 16.1522%
Source Step = 16.9107%
vernier = 0.0375423
Source Step = 17.8208%
Source Step = 18.9584%
Source Step = 20.0961%
Source Step = 21.2337%
Source Step = 22.3714%
vernier = 0.0563135
Source Step = 23.6797%
Source Step = 25.3861%
Source Step = 27.0926%
Source Step = 28.7991%
Source Step = 30.5055%
vernier = 0.0844703
Source Step = 32.3827%
Source Step = 34.9424%
Source Step = 37.5021%
Source Step = 40.0618%
Source Step = 42.6215%
vernier = 0.126705
Source Step = 45.3092%
Source Step = 49.1487%
Source Step = 52.9883%
Source Step = 56.8278%
Source Step = 60.6674%
Source Step = 64.507%
vernier = 0.190058
Source Step = 70.2663%
Source Step = 76.0256%
Source Step = 81.785%
Source Step = 87.5443%
Source Step = 93.3036%
vernier = 0.285087
Source Step = 100%
Source stepping succeeded in finding the operating point.

Ignoring empty pin current: Ix(u6:1)
Ignoring empty pin current: Ix(u6:2)
Ignoring empty pin current: Ix(u7:1)
Ignoring empty pin current: Ix(u7:2)
Ignoring empty pin current: Ix(u6:1)
Ignoring empty pin current: Ix(u6:2)
Ignoring empty pin current: Ix(u7:1)
Ignoring empty pin current: Ix(u7:2)
.step vb=1
.step vb=2
.step vb=3
.step vb=4
.step vb=5

Date: Fri Jun 02 18:52:14 2023
Total elapsed time: 30.540 seconds.

tnom = 27
temp = 27
method = modified trap
totiter = 45822
traniter = 43965
tranpoints = 13235
accept = 9311
rejected = 3924
matrix size = 218
fillins = 3110
solver = Normal
Thread vector: 14.7/9.1[4] 4.0/3.3[3] 4.3/3.2[4] 1.8/2.7[1]  2592/500
Matrix Compiler1: 751.12 KB object code size  115.0/46.8/[24.6]
Matrix Compiler2: 72.84 KB object code size  12.0/8.4/[6.1]

